GLD/one_gld_multi_adc/IEEE-123-feeder/IEEE_123_feeder_0/IEEE_123_feeder_0_DER.glm
clock {
	timezone PST8;
	stoptime '2013-07-30 00:00:00';
	starttime '2013-07-29 00:00:00';
}

#include "../include/schedules/appliance_schedules.glm"
#include "../include/schedules/water_and_setpoint_schedule_v5.glm"
#define stylesheet=http://gridlab-d.svn.sourceforge.net/viewvc/gridlab-d/trunk/core/gridlabd-2_0
#set minimum_timestep=15.000000
#set profiler=1
#set relax_naming_rules=1
#set randomseed=10
#set suppress_repeat_messages=TRUE

module climate;

module residential {
	implicit_enduses NONE;
};

module tape;

module generators;

module powerflow {
	solver_method FBS;
	line_limits TRUE;
	default_maximum_voltage_error 1e-4;
};

module market;

object load {
	name l94;
	voltage_B -1200.8886-2080.000j;
	voltage_C -1200.8886+2080.000j;
	phases "AN";
	voltage_A 2401.7771;
	nominal_voltage 2401.7771;
}

object load {
	name l95;
	voltage_B -1200.8886-2080.000j;
	voltage_C -1200.8886+2080.000j;
	phases "ABCN";
	voltage_A 2401.7771;
	nominal_voltage 2401.7771;
}

object load {
	name l96;
	voltage_B -1200.8886-2080.000j;
	voltage_C -1200.8886+2080.000j;
	phases "BN";
	voltage_A 2401.7771;
	nominal_voltage 2401.7771;
}

object load {
	name l71;
	voltage_B -1200.8886-2080.000j;
	voltage_C -1200.8886+2080.000j;
	phases "AN";
	voltage_A 2401.7771;
	nominal_voltage 2401.7771;
}

object load {
	name l90;
	voltage_B -1200.8886-2080.000j;
	voltage_C -1200.8886+2080.000j;
	phases "BN";
	voltage_A 2401.7771;
	nominal_voltage 2401.7771;
}

object load {
	name l102;
	voltage_B -1200.8886-2080.000j;
	voltage_C -1200.8886+2080.000j;
	phases "CN";
	voltage_A 2401.7771;
	nominal_voltage 2401.7771;
}

object load {
	name l92;
	voltage_B -1200.8886-2080.000j;
	voltage_C -1200.8886+2080.000j;
	phases "CN";
	voltage_A 2401.7771;
	nominal_voltage 2401.7771;
}

object load {
	name l86;
	voltage_B -1200.8886-2080.000j;
	voltage_C -1200.8886+2080.000j;
	phases "ABCN";
	voltage_A 2401.7771;
	nominal_voltage 2401.7771;
}

object load {
	name l76;
	voltage_B -1200.8886-2080.000j;
	phases "ABCD";
	constant_current_A 31.4742-4.0341j;
	voltage_C -1200.8886+2080.000j;
	constant_current_C -8.5629+18.8224j;
	voltage_A 2401.7771;
	constant_current_B -12.0192-16.8269j;
	nominal_voltage 2401.7771;
}

object load {
	name l80;
	voltage_B -1200.8886-2080.000j;
	voltage_C -1200.8886+2080.000j;
	phases "ABCN";
	voltage_A 2401.7771;
	nominal_voltage 2401.7771;
}

object load {
	name l98;
	voltage_B -1200.8886-2080.000j;
	voltage_C -1200.8886+2080.000j;
	phases "ABCN";
	voltage_A 2401.7771;
	nominal_voltage 2401.7771;
}

object load {
	name l99;
	voltage_B -1200.8886-2080.000j;
	voltage_C -1200.8886+2080.000j;
	phases "ABCN";
	voltage_A 2401.7771;
	nominal_voltage 2401.7771;
}

object load {
	name l77;
	voltage_B -1200.8886-2080.000j;
	voltage_C -1200.8886+2080.000j;
	phases "ABCN";
	voltage_A 2401.7771;
	nominal_voltage 2401.7771;
}

object load {
	name l113;
	voltage_B -1200.8886-2080.000j;
	voltage_C -1200.8886+2080.000j;
	phases "AN";
	voltage_A 2401.7771;
	nominal_voltage 2401.7771;
}

object load {
	name l37;
	voltage_B -1200.8886-2080.000j;
	voltage_C -1200.8886+2080.000j;
	phases "AN";
	voltage_A 2401.7771;
	nominal_voltage 2401.7771;
}

object load {
	name l34;
	voltage_B -1200.8886-2080.000j;
	voltage_C -1200.8886+2080.000j;
	phases "CN";
	voltage_A 2401.7771;
	nominal_voltage 2401.7771;
}

object load {
	name l35;
	phases "ABCD";
	voltage_B -1200.8886-2080.000j;
	voltage_C -1200.8886+2080.000j;
	voltage_A 2401.7771;
	nominal_voltage 2401.7771;
	constant_power_A 40000+20000j;
}

object load {
	name l32;
	voltage_B -1200.8886-2080.000j;
	voltage_C -1200.8886+2080.000j;
	phases "CN";
	voltage_A 2401.7771;
	nominal_voltage 2401.7771;
}

object load {
	name l33;
	voltage_B -1200.8886-2080.000j;
	voltage_C -1200.8886+2080.000j;
	phases "AN";
	voltage_A 2401.7771;
	nominal_voltage 2401.7771;
}

object load {
	name l30;
	voltage_B -1200.8886-2080.000j;
	voltage_C -1200.8886+2080.000j;
	phases "ABCN";
	voltage_A 2401.7771;
	nominal_voltage 2401.7771;
}

object load {
	name l31;
	voltage_B -1200.8886-2080.000j;
	voltage_C -1200.8886+2080.000j;
	phases "CN";
	voltage_A 2401.7771;
	nominal_voltage 2401.7771;
}

object load {
	name l109;
	voltage_B -1200.8886-2080.000j;
	voltage_C -1200.8886+2080.000j;
	phases "AN";
	voltage_A 2401.7771;
	nominal_voltage 2401.7771;
}

object load {
	name l38;
	voltage_B -1200.8886-2080.000j;
	voltage_C -1200.8886+2080.000j;
	phases "BN";
	voltage_A 2401.7771;
	nominal_voltage 2401.7771;
}

object load {
	name l39;
	voltage_B -1200.8886-2080.000j;
	voltage_C -1200.8886+2080.000j;
	phases "BN";
	voltage_A 2401.7771;
	nominal_voltage 2401.7771;
}

object load {
	name l50;
	voltage_B -1200.8886-2080.000j;
	voltage_C -1200.8886+2080.000j;
	phases "ABCN";
	voltage_A 2401.7771;
	nominal_voltage 2401.7771;
}

object load {
	name l51;
	voltage_B -1200.8886-2080.000j;
	voltage_C -1200.8886+2080.000j;
	phases "ABCN";
	voltage_A 2401.7771;
	nominal_voltage 2401.7771;
}

object load {
	name l52;
	voltage_B -1200.8886-2080.000j;
	voltage_C -1200.8886+2080.000j;
	phases "ABCN";
	voltage_A 2401.7771;
	nominal_voltage 2401.7771;
}

object load {
	name l53;
	voltage_B -1200.8886-2080.000j;
	voltage_C -1200.8886+2080.000j;
	phases "ABCN";
	voltage_A 2401.7771;
	nominal_voltage 2401.7771;
}

object load {
	name l19;
	voltage_B -1200.8886-2080.000j;
	voltage_C -1200.8886+2080.000j;
	phases "AN";
	voltage_A 2401.7771;
	nominal_voltage 2401.7771;
}

object load {
	name l56;
	voltage_B -1200.8886-2080.000j;
	voltage_C -1200.8886+2080.000j;
	phases "ABCN";
	voltage_A 2401.7771;
	nominal_voltage 2401.7771;
}

object load {
	name l58;
	voltage_B -1200.8886-2080.000j;
	voltage_C -1200.8886+2080.000j;
	phases "BN";
	voltage_A 2401.7771;
	nominal_voltage 2401.7771;
}

object load {
	name l59;
	voltage_B -1200.8886-2080.000j;
	voltage_C -1200.8886+2080.000j;
	phases "BN";
	voltage_A 2401.7771;
	nominal_voltage 2401.7771;
}

object load {
	name l16;
	voltage_B -1200.8886-2080.000j;
	voltage_C -1200.8886+2080.000j;
	phases "CN";
	voltage_A 2401.7771;
	nominal_voltage 2401.7771;
}

object load {
	name l17;
	voltage_B -1200.8886-2080.000j;
	voltage_C -1200.8886+2080.000j;
	phases "CN";
	voltage_A 2401.7771;
	nominal_voltage 2401.7771;
}

object load {
	name l10;
	voltage_B -1200.8886-2080.000j;
	voltage_C -1200.8886+2080.000j;
	phases "AN";
	voltage_A 2401.7771;
	nominal_voltage 2401.7771;
}

object load {
	name l11;
	voltage_B -1200.8886-2080.000j;
	voltage_C -1200.8886+2080.000j;
	phases "AN";
	voltage_A 2401.7771;
	nominal_voltage 2401.7771;
}

object load {
	name l12;
	voltage_B -1200.8886-2080.000j;
	voltage_C -1200.8886+2080.000j;
	phases "BN";
	voltage_A 2401.7771;
	nominal_voltage 2401.7771;
}

object load {
	name l75;
	voltage_B -1200.8886-2080.000j;
	voltage_C -1200.8886+2080.000j;
	phases "CN";
	voltage_A 2401.7771;
	nominal_voltage 2401.7771;
}

object load {
	name l79;
	voltage_B -1200.8886-2080.000j;
	voltage_C -1200.8886+2080.000j;
	phases "ABCN";
	voltage_A 2401.7771;
	nominal_voltage 2401.7771;
}

object load {
	name l114;
	voltage_B -1200.8886-2080.000j;
	voltage_C -1200.8886+2080.000j;
	phases "AN";
	voltage_A 2401.7771;
	nominal_voltage 2401.7771;
}

object load {
	name l112;
	voltage_B -1200.8886-2080.000j;
	voltage_C -1200.8886+2080.000j;
	phases "AN";
	voltage_A 2401.7771;
	nominal_voltage 2401.7771;
}

object load {
	name l106;
	voltage_B -1200.8886-2080.000j;
	voltage_C -1200.8886+2080.000j;
	phases "BN";
	voltage_A 2401.7771;
	nominal_voltage 2401.7771;
}

object load {
	name l111;
	voltage_B -1200.8886-2080.000j;
	voltage_C -1200.8886+2080.000j;
	phases "AN";
	voltage_A 2401.7771;
	nominal_voltage 2401.7771;
}

object load {
	name l87;
	voltage_B -1200.8886-2080.000j;
	voltage_C -1200.8886+2080.000j;
	phases "ABCN";
	voltage_A 2401.7771;
	nominal_voltage 2401.7771;
}

object load {
	name l65;
	phases "ABCD";
	constant_impedance_A 327.4032+233.8595j;
	constant_impedance_B 327.4032+233.8595j;
	constant_impedance_C 163.7016+116.9297j;
	voltage_B -1200.8886-2080.000j;
	voltage_C -1200.8886+2080.000j;
	voltage_A 2401.7771;
	nominal_voltage 2401.7771;
}

object load {
	name l85;
	voltage_B -1200.8886-2080.000j;
	voltage_C -1200.8886+2080.000j;
	phases "CN";
	voltage_A 2401.7771;
	nominal_voltage 2401.7771;
}

object load {
	name l84;
	voltage_B -1200.8886-2080.000j;
	voltage_C -1200.8886+2080.000j;
	phases "CN";
	voltage_A 2401.7771;
	nominal_voltage 2401.7771;
}

object load {
	name l83;
	voltage_B -1200.8886-2080.000j;
	voltage_C -1200.8886+2080.000j;
	phases "ABCN";
	voltage_A 2401.7771;
	nominal_voltage 2401.7771;
}

object load {
	name l82;
	voltage_B -1200.8886-2080.000j;
	voltage_C -1200.8886+2080.000j;
	phases "ABCN";
	voltage_A 2401.7771;
	nominal_voltage 2401.7771;
}

object load {
	name l64;
	voltage_B -1200.8886-2080.000j;
	voltage_C -1200.8886+2080.000j;
	phases "ABC";
	voltage_A 2401.7771;
	nominal_voltage 2401.7771;
}

object load {
	name l88;
	voltage_B -1200.8886-2080.000j;
	voltage_C -1200.8886+2080.000j;
	phases "AN";
	voltage_A 2401.7771;
	nominal_voltage 2401.7771;
}

object load {
	name l20;
	voltage_B -1200.8886-2080.000j;
	voltage_C -1200.8886+2080.000j;
	phases "AN";
	voltage_A 2401.7771;
	nominal_voltage 2401.7771;
}

object load {
	name l22;
	voltage_B -1200.8886-2080.000j;
	voltage_C -1200.8886+2080.000j;
	phases "BN";
	voltage_A 2401.7771;
	nominal_voltage 2401.7771;
}

object load {
	name l24;
	voltage_B -1200.8886-2080.000j;
	voltage_C -1200.8886+2080.000j;
	phases "CN";
	voltage_A 2401.7771;
	nominal_voltage 2401.7771;
}

object load {
	name l100;
	voltage_B -1200.8886-2080.000j;
	voltage_C -1200.8886+2080.000j;
	phases "ABCN";
	voltage_A 2401.7771;
	nominal_voltage 2401.7771;
}

object load {
	name l29;
	voltage_B -1200.8886-2080.000j;
	voltage_C -1200.8886+2080.000j;
	phases "ABCN";
	voltage_A 2401.7771;
	nominal_voltage 2401.7771;
}

object load {
	name l28;
	voltage_B -1200.8886-2080.000j;
	voltage_C -1200.8886+2080.000j;
	phases "ABCN";
	voltage_A 2401.7771;
	nominal_voltage 2401.7771;
}

object load {
	name l60;
	voltage_B -1200.8886-2080.000j;
	voltage_C -1200.8886+2080.000j;
	phases "ABCN";
	voltage_A 2401.7771;
	nominal_voltage 2401.7771;
}

object load {
	name l55;
	voltage_B -1200.8886-2080.000j;
	voltage_C -1200.8886+2080.000j;
	phases "ABCN";
	voltage_A 2401.7771;
	nominal_voltage 2401.7771;
}

object load {
	name l43;
	voltage_B -1200.8886-2080.000j;
	voltage_C -1200.8886+2080.000j;
	phases "BN";
	voltage_A 2401.7771;
	nominal_voltage 2401.7771;
}

object load {
	name l42;
	voltage_B -1200.8886-2080.000j;
	voltage_C -1200.8886+2080.000j;
	phases "ABCN";
	voltage_A 2401.7771;
	nominal_voltage 2401.7771;
}

object load {
	name l41;
	voltage_B -1200.8886-2080.000j;
	voltage_C -1200.8886+2080.000j;
	phases "CN";
	voltage_A 2401.7771;
	nominal_voltage 2401.7771;
}

object load {
	name l66;
	voltage_B -1200.8886-2080.000j;
	voltage_C -1200.8886+2080.000j;
	phases "ABC";
	voltage_A 2401.7771;
	nominal_voltage 2401.7771;
}

object load {
	name l47;
	voltage_B -1200.8886-2080.000j;
	phases "ABCN";
	constant_current_A 14.5725-10.409j;
	voltage_C -1200.8886+2080.000j;
	constant_current_C 1.7282+17.8247j;
	voltage_A 2401.7771;
	constant_current_B -16.3007-7.4157j;
	nominal_voltage 2401.7771;
}

object load {
	name l46;
	voltage_B -1200.8886-2080.000j;
	voltage_C -1200.8886+2080.000j;
	phases "AN";
	voltage_A 2401.7771;
	nominal_voltage 2401.7771;
}

object load {
	name l45;
	voltage_B -1200.8886-2080.000j;
	voltage_C -1200.8886+2080.000j;
	phases "AN";
	voltage_A 2401.7771;
	nominal_voltage 2401.7771;
}

object load {
	name l62;
	voltage_B -1200.8886-2080.000j;
	voltage_C -1200.8886+2080.000j;
	phases "ABC";
	voltage_A 2401.7771;
	nominal_voltage 2401.7771;
}

object load {
	name l49;
	phases "ABCN";
	voltage_B -1200.8886-2080.000j;
	voltage_C -1200.8886+2080.000j;
	voltage_A 2401.7771;
	constant_power_C 35000+25000j;
	constant_power_B 70000+50000j;
	constant_power_A 35000+25000j;
	nominal_voltage 2401.7771;
}

object load {
	name l48;
	phases "ABCN";
	constant_impedance_A 54.5672+38.9766j;
	constant_impedance_B 54.5672+38.9766j;
	constant_impedance_C 54.5672+38.9766j;
	voltage_B -1200.8886-2080.000j;
	voltage_C -1200.8886+2080.000j;
	voltage_A 2401.7771;
	nominal_voltage 2401.7771;
}

object load {
	name l69;
	voltage_B -1200.8886-2080.000j;
	voltage_C -1200.8886+2080.000j;
	phases "AN";
	voltage_A 2401.7771;
	nominal_voltage 2401.7771;
}

object load {
	name l68;
	voltage_B -1200.8886-2080.000j;
	voltage_C -1200.8886+2080.000j;
	phases "AN";
	voltage_A 2401.7771;
	nominal_voltage 2401.7771;
}

object load {
	name l73;
	voltage_B -1200.8886-2080.000j;
	voltage_C -1200.8886+2080.000j;
	phases "CN";
	voltage_A 2401.7771;
	nominal_voltage 2401.7771;
}

object load {
	name l104;
	voltage_B -1200.8886-2080.000j;
	voltage_C -1200.8886+2080.000j;
	phases "CN";
	voltage_A 2401.7771;
	nominal_voltage 2401.7771;
}

object load {
	name l6;
	voltage_B -1200.8886-2080.000j;
	voltage_C -1200.8886+2080.000j;
	phases "CN";
	voltage_A 2401.7771;
	nominal_voltage 2401.7771;
}

object load {
	name l7;
	voltage_B -1200.8886-2080.000j;
	voltage_C -1200.8886+2080.000j;
	phases "ABCN";
	voltage_A 2401.7771;
	nominal_voltage 2401.7771;
}

object load {
	name l4;
	voltage_B -1200.8886-2080.000j;
	voltage_C -1200.8886+2080.000j;
	phases "CN";
	voltage_A 2401.7771;
	nominal_voltage 2401.7771;
}

object load {
	name l5;
	voltage_B -1200.8886-2080.000j;
	voltage_C -1200.8886+2080.000j;
	phases "CN";
	voltage_A 2401.7771;
	nominal_voltage 2401.7771;
}

object load {
	name l2;
	voltage_B -1200.8886-2080.000j;
	voltage_C -1200.8886+2080.000j;
	phases "BN";
	voltage_A 2401.7771;
	nominal_voltage 2401.7771;
}

object load {
	name l1;
	voltage_B -1200.8886-2080.000j;
	voltage_C -1200.8886+2080.000j;
	phases "ABCN";
	voltage_A 2401.7771;
	nominal_voltage 2401.7771;
}

object load {
	name l63;
	voltage_B -1200.8886-2080.000j;
	voltage_C -1200.8886+2080.000j;
	phases "ABC";
	voltage_A 2401.7771;
	nominal_voltage 2401.7771;
}

object load {
	name l103;
	voltage_B -1200.8886-2080.000j;
	voltage_C -1200.8886+2080.000j;
	phases "CN";
	voltage_A 2401.7771;
	nominal_voltage 2401.7771;
}

object load {
	name l74;
	voltage_B -1200.8886-2080.000j;
	voltage_C -1200.8886+2080.000j;
	phases "CN";
	voltage_A 2401.7771;
	nominal_voltage 2401.7771;
}

object load {
	name l70;
	voltage_B -1200.8886-2080.000j;
	voltage_C -1200.8886+2080.000j;
	phases "AN";
	voltage_A 2401.7771;
	nominal_voltage 2401.7771;
}

object load {
	name l107;
	voltage_B -1200.8886-2080.000j;
	voltage_C -1200.8886+2080.000j;
	phases "BN";
	voltage_A 2401.7771;
	nominal_voltage 2401.7771;
}

object load {
	name l9;
	voltage_B -1200.8886-2080.000j;
	voltage_C -1200.8886+2080.000j;
	phases "AN";
	voltage_A 2401.7771;
	nominal_voltage 2401.7771;
}

object overhead_line {
	name linobj2528;
	phases "ABCN";
	from n25;
	to l28;
	length 200;
	configuration lc1002;
	groupid Distribution_Line;
}

object overhead_line {
	name linobj140114;
	phases "AN";
	from n1401;
	to n14;
	length 425;
	configuration lc1009;
	groupid Distribution_Line;
}

object overhead_line {
	name linobj4445;
	phases "AN";
	from n44;
	to l45;
	length 200;
	configuration lc1009;
	groupid Distribution_Line;
}

object overhead_line {
	name linobj56;
	phases "CN";
	from l5;
	to l6;
	length 250;
	configuration lc10011;
	groupid Distribution_Line;
}

object overhead_line {
	name linobj106107;
	phases "BN";
	from l106;
	to l107;
	length 575;
	configuration lc10010;
	groupid Distribution_Line;
}

object overhead_line {
	name linobj260126;
	phases "ACN";
	from n2601;
	to n26;
	length 350;
	configuration lc1007;
	groupid Distribution_Line;
}

object overhead_line {
	name linobj6797;
	phases "ABCN";
	from n67;
	to n97;
	length 250;
	configuration lc1003;
	groupid Distribution_Line;
}

object overhead_line {
	name linobj4950;
	phases "ABCN";
	from l49;
	to l50;
	length 250;
	configuration lc1004;
	groupid Distribution_Line;
}

object overhead_line {
	name linobj4748;
	phases "ABCN";
	from l47;
	to l48;
	length 150;
	configuration lc1004;
	groupid Distribution_Line;
}

object overhead_line {
	name linobj2631;
	phases "CN";
	from n26;
	to l31;
	length 225;
	configuration lc10011;
	groupid Distribution_Line;
}

object overhead_line {
	name linobj4447;
	phases "ABCN";
	from n44;
	to l47;
	length 250;
	configuration lc1001;
	groupid Distribution_Line;
}

object overhead_line {
	name linobj2733;
	phases "AN";
	from n27;
	to l33;
	length 500;
	configuration lc1009;
	groupid Distribution_Line;
}

object overhead_line {
	name linobj102103;
	phases "CN";
	from l102;
	to l103;
	length 325;
	configuration lc10011;
	groupid Distribution_Line;
}

object overhead_line {
	name linobj7879;
	phases "ABCN";
	from n78;
	to l79;
	length 225;
	configuration lc1006;
	groupid Distribution_Line;
}

object overhead_line {
	name linobj9596;
	phases "BN";
	from l95;
	to l96;
	length 200;
	configuration lc10010;
	groupid Distribution_Line;
}

object overhead_line {
	name linobj108109;
	phases "AN";
	from n108;
	to l109;
	length 450;
	configuration lc1009;
	groupid Distribution_Line;
}

object overhead_line {
	name linobj13535;
	phases "ABCN";
	from n135;
	to l35;
	length 375;
	configuration lc1004;
	groupid Distribution_Line;
}

object overhead_line {
	name linobj103104;
	phases "CN";
	from l103;
	to l104;
	length 700;
	configuration lc10011;
	groupid Distribution_Line;
}

object overhead_line {
	name linobj5457;
	phases "ABCN";
	from n54;
	to n57;
	length 350;
	configuration lc1003;
	groupid Distribution_Line;
}

object overhead_line {
	name linobj1819;
	phases "AN";
	from n18;
	to l19;
	length 250;
	configuration lc1009;
	groupid Distribution_Line;
}

object overhead_line {
	name linobj2325;
	phases "ABCN";
	from n23;
	to n25;
	length 275;
	configuration lc1002;
	groupid Distribution_Line;
}

object overhead_line {
	name linobj2324;
	phases "CN";
	from n23;
	to l24;
	length 550;
	configuration lc10011;
	groupid Distribution_Line;
}

object overhead_line {
	name linobj109110;
	phases "AN";
	from l109;
	to n110;
	length 300;
	configuration lc1009;
	groupid Distribution_Line;
}

object overhead_line {
	name linobj4749;
	phases "ABCN";
	from l47;
	to l49;
	length 250;
	configuration lc1004;
	groupid Distribution_Line;
}

object overhead_line {
	name linobj5354;
	phases "ABCN";
	from l53;
	to n54;
	length 125;
	configuration lc1001;
	groupid Distribution_Line;
}

object overhead_line {
	name linobj7880;
	phases "ABCN";
	from n78;
	to l80;
	length 475;
	configuration lc1006;
	groupid Distribution_Line;
}

object overhead_line {
	name linobj6061;
	phases "ABCN";
	from l60;
	to n61;
	length 550;
	configuration lc1005;
	groupid Distribution_Line;
}

object overhead_line {
	name linobj112113;
	phases "AN";
	from l112;
	to l113;
	length 525;
	configuration lc1009;
	groupid Distribution_Line;
}

object overhead_line {
	name linobj3839;
	phases "BN";
	from l38;
	to l39;
	length 325;
	configuration lc10010;
	groupid Distribution_Line;
}

object overhead_line {
	name linobj6970;
	phases "AN";
	from l69;
	to l70;
	length 325;
	configuration lc1009;
	groupid Distribution_Line;
}

object overhead_line {
	name linobj78;
	phases "ABCN";
	from l7;
	to n8;
	length 200;
	configuration lc1001;
	groupid Distribution_Line;
}

object overhead_line {
	name linobj9193;
	phases "ABCN";
	from n91;
	to n93;
	length 225;
	configuration lc1006;
	groupid Distribution_Line;
}

object overhead_line {
	name linobj9192;
	phases "CN";
	from n91;
	to l92;
	length 300;
	configuration lc10011;
	groupid Distribution_Line;
}

object overhead_line {
	name linobj1491;
	phases "ABCN";
	from n149;
	to l1;
	length 400;
	configuration lc1001;
	groupid Distribution_Line;
}

object overhead_line {
	name linobj6772;
	phases "ABCN";
	from n67;
	to n72;
	length 275;
	configuration lc1003;
	groupid Distribution_Line;
}

object overhead_line {
	name linobj8182;
	phases "ABCN";
	from n81;
	to l82;
	length 250;
	configuration lc1006;
	groupid Distribution_Line;
}

object overhead_line {
	name linobj8990;
	phases "BN";
	from n89;
	to l90;
	length 225;
	configuration lc10010;
	groupid Distribution_Line;
}

object overhead_line {
	name linobj8991;
	phases "ABCN";
	from n89;
	to n91;
	length 225;
	configuration lc1006;
	groupid Distribution_Line;
}

object overhead_line {
	name linobj8184;
	phases "CN";
	from n81;
	to l84;
	length 675;
	configuration lc10011;
	groupid Distribution_Line;
}

object overhead_line {
	name linobj113114;
	phases "AN";
	from l113;
	to l114;
	length 325;
	configuration lc1009;
	groupid Distribution_Line;
}

object overhead_line {
	name linobj7276;
	phases "ABCN";
	from n72;
	to l76;
	length 200;
	configuration lc1003;
	groupid Distribution_Line;
}

object overhead_line {
	name linobj7273;
	phases "CN";
	from n72;
	to l73;
	length 275;
	configuration lc10011;
	groupid Distribution_Line;
}

object overhead_line {
	name linobj812;
	phases "BN";
	from n8;
	to l12;
	length 225;
	configuration lc10010;
	groupid Distribution_Line;
}

object overhead_line {
	name linobj813;
	phases "ABCN";
	from n8;
	to n13;
	length 300;
	configuration lc1001;
	groupid Distribution_Line;
}

object overhead_line {
	name linobj5859;
	phases "BN";
	from l58;
	to l59;
	length 250;
	configuration lc10010;
	groupid Distribution_Line;
}

object overhead_line {
	name linobj1410;
	phases "AN";
	from n14;
	to l10;
	length 250;
	configuration lc1009;
	groupid Distribution_Line;
}

object overhead_line {
	name linobj1411;
	phases "AN";
	from n14;
	to l11;
	length 250;
	configuration lc1009;
	groupid Distribution_Line;
}

object overhead_line {
	name linobj5760;
	phases "ABCN";
	from n57;
	to l60;
	length 750;
	configuration lc1003;
	groupid Distribution_Line;
}

object overhead_line {
	name linobj7677;
	phases "ABCN";
	from l76;
	to l77;
	length 400;
	configuration lc1006;
	groupid Distribution_Line;
}

object overhead_line {
	name linobj89;
	phases "AN";
	from n8;
	to l9;
	length 225;
	configuration lc1009;
	groupid Distribution_Line;
}

object overhead_line {
	name linobj2829;
	phases "ABCN";
	from l28;
	to l29;
	length 300;
	configuration lc1002;
	groupid Distribution_Line;
}

object overhead_line {
	name linobj1920;
	phases "AN";
	from l19;
	to l20;
	length 325;
	configuration lc1009;
	groupid Distribution_Line;
}

object overhead_line {
	name linobj670167;
	phases "ABCN";
	from n6701;
	to n67;
	length 350;
	configuration lc1006;
	groupid Distribution_Line;
}

object overhead_line {
	name linobj7071;
	phases "AN";
	from l70;
	to l71;
	length 275;
	configuration lc1009;
	groupid Distribution_Line;
}

object overhead_line {
	name linobj100450;
	phases "ABCN";
	from l100;
	to n450;
	length 800;
	configuration lc1003;
	groupid Distribution_Line;
}

object overhead_line {
	name linobj6768;
	phases "AN";
	from n67;
	to l68;
	length 200;
	configuration lc1009;
	groupid Distribution_Line;
}

object overhead_line {
	name linobj8283;
	phases "ABCN";
	from l82;
	to l83;
	length 250;
	configuration lc1006;
	groupid Distribution_Line;
}

object overhead_line {
	name linobj7778;
	phases "ABCN";
	from l77;
	to n78;
	length 100;
	configuration lc1006;
	groupid Distribution_Line;
}

object overhead_line {
	name linobj7475;
	phases "CN";
	from l74;
	to l75;
	length 400;
	configuration lc10011;
	groupid Distribution_Line;
}

object overhead_line {
	name linobj1821;
	phases "ABCN";
	from n18;
	to n21;
	length 300;
	configuration lc1002;
	groupid Distribution_Line;
}

object overhead_line {
	name linobj13;
	phases "CN";
	from l1;
	to n3;
	length 250;
	configuration lc10011;
	groupid Distribution_Line;
}

object overhead_line {
	name linobj12;
	phases "BN";
	from l1;
	to l2;
	length 175;
	configuration lc10010;
	groupid Distribution_Line;
}

object overhead_line {
	name linobj8081;
	phases "ABCN";
	from l80;
	to n81;
	length 475;
	configuration lc1006;
	groupid Distribution_Line;
}

object overhead_line {
	name linobj17;
	phases "ABCN";
	from l1;
	to l7;
	length 300;
	configuration lc1001;
	groupid Distribution_Line;
}

object overhead_line {
	name linobj5758;
	phases "BN";
	from n57;
	to l58;
	length 250;
	configuration lc10010;
	groupid Distribution_Line;
}

object overhead_line {
	name linobj30250;
	phases "ABCN";
	from l30;
	to n250;
	length 200;
	configuration lc1002;
	groupid Distribution_Line;
}

object overhead_line {
	name linobj51151;
	phases "ABCN";
	from l51;
	to n151;
	length 700;
	configuration lc1004;
	groupid Distribution_Line;
}

object overhead_line {
	name linobj8485;
	phases "CN";
	from l84;
	to l85;
	length 475;
	configuration lc10011;
	groupid Distribution_Line;
}

object overhead_line {
	name linobj4243;
	phases "BN";
	from l42;
	to l43;
	length 500;
	configuration lc10010;
	groupid Distribution_Line;
}

object overhead_line {
	name linobj4244;
	phases "ABCN";
	from l42;
	to n44;
	length 200;
	configuration lc1001;
	groupid Distribution_Line;
}

object overhead_line {
	name linobj3536;
	phases "ABN";
	from l35;
	to n36;
	length 650;
	configuration lc1008;
	groupid Distribution_Line;
}

object overhead_line {
	name linobj8789;
	phases "ABCN";
	from l87;
	to n89;
	length 275;
	configuration lc1006;
	groupid Distribution_Line;
}

object overhead_line {
	name linobj8788;
	phases "AN";
	from l87;
	to l88;
	length 175;
	configuration lc1009;
	groupid Distribution_Line;
}

object overhead_line {
	name linobj108300;
	phases "ABCN";
	from n108;
	to n300;
	length 1000;
	configuration lc1003;
	groupid Distribution_Line;
}

object overhead_line {
	name linobj5253;
	phases "ABCN";
	from l52;
	to l53;
	length 200;
	configuration lc1001;
	groupid Distribution_Line;
}

object overhead_line {
	name linobj7374;
	phases "CN";
	from l73;
	to l74;
	length 350;
	configuration lc10011;
	groupid Distribution_Line;
}

object overhead_line {
	name linobj2930;
	phases "ABCN";
	from l29;
	to l30;
	length 350;
	configuration lc1002;
	groupid Distribution_Line;
}

object overhead_line {
	name linobj1318;
	phases "ABCN";
	from n13;
	to n18;
	length 825;
	configuration lc1002;
	groupid Distribution_Line;
}

object overhead_line {
	name linobj110111;
	phases "AN";
	from n110;
	to l111;
	length 575;
	configuration lc1009;
	groupid Distribution_Line;
}

object overhead_line {
	name linobj110112;
	phases "AN";
	from n110;
	to l112;
	length 125;
	configuration lc1009;
	groupid Distribution_Line;
}

object overhead_line {
	name linobj4546;
	phases "AN";
	from l45;
	to l46;
	length 300;
	configuration lc1009;
	groupid Distribution_Line;
}

object overhead_line {
	name linobj99100;
	phases "ABCN";
	from l99;
	to l100;
	length 300;
	configuration lc1003;
	groupid Distribution_Line;
}

object overhead_line {
	name linobj3132;
	phases "CN";
	from l31;
	to l32;
	length 300;
	configuration lc10011;
	groupid Distribution_Line;
}

object overhead_line {
	name linobj5556;
	phases "ABCN";
	from l55;
	to l56;
	length 275;
	configuration lc1001;
	groupid Distribution_Line;
}

object overhead_line {
	name linobj5051;
	phases "ABCN";
	from l50;
	to l51;
	length 250;
	configuration lc1004;
	groupid Distribution_Line;
}

object overhead_line {
	name linobj35;
	phases "CN";
	from n3;
	to l5;
	length 325;
	configuration lc10011;
	groupid Distribution_Line;
}

object overhead_line {
	name linobj34;
	phases "CN";
	from n3;
	to l4;
	length 200;
	configuration lc10011;
	groupid Distribution_Line;
}

object overhead_line {
	name linobj101105;
	phases "ABCN";
	from n101;
	to n105;
	length 275;
	configuration lc1003;
	groupid Distribution_Line;
}

object overhead_line {
	name linobj3540;
	phases "ABCN";
	from l35;
	to n40;
	length 250;
	configuration lc1001;
	groupid Distribution_Line;
}

object overhead_line {
	name linobj2123;
	phases "ABCN";
	from n21;
	to n23;
	length 250;
	configuration lc1002;
	groupid Distribution_Line;
}

object overhead_line {
	name linobj2122;
	phases "BN";
	from n21;
	to l22;
	length 525;
	configuration lc10010;
	groupid Distribution_Line;
}

object overhead_line {
	name linobj101102;
	phases "CN";
	from n101;
	to l102;
	length 225;
	configuration lc10011;
	groupid Distribution_Line;
}

object overhead_line {
	name linobj1517;
	phases "CN";
	from n15;
	to l17;
	length 350;
	configuration lc10011;
	groupid Distribution_Line;
}

object overhead_line {
	name linobj1516;
	phases "CN";
	from n15;
	to l16;
	length 375;
	configuration lc10011;
	groupid Distribution_Line;
}

object overhead_line {
	name linobj9395;
	phases "ABCN";
	from n93;
	to l95;
	length 300;
	configuration lc1006;
	groupid Distribution_Line;
}

object overhead_line {
	name linobj197101;
	phases "ABCN";
	from n197;
	to n101;
	length 250;
	configuration lc1003;
	groupid Distribution_Line;
}

object overhead_line {
	name linobj7686;
	phases "ABCN";
	from l76;
	to l86;
	length 700;
	configuration lc1003;
	groupid Distribution_Line;
}

object overhead_line {
	name linobj9394;
	phases "AN";
	from n93;
	to l94;
	length 275;
	configuration lc1009;
	groupid Distribution_Line;
}

object overhead_line {
	name linobj3637;
	phases "AN";
	from n36;
	to l37;
	length 300;
	configuration lc1009;
	groupid Distribution_Line;
}

object overhead_line {
	name linobj3638;
	phases "BN";
	from n36;
	to l38;
	length 250;
	configuration lc10010;
	groupid Distribution_Line;
}

object overhead_line {
	name linobj6869;
	phases "AN";
	from l68;
	to l69;
	length 275;
	configuration lc1009;
	groupid Distribution_Line;
}

object overhead_line {
	name linobj8687;
	phases "ABCN";
	from l86;
	to l87;
	length 450;
	configuration lc1006;
	groupid Distribution_Line;
}

object overhead_line {
	name linobj3415;
	phases "CN";
	from l34;
	to n15;
	length 100;
	configuration lc10011;
	groupid Distribution_Line;
}

object overhead_line {
	name linobj15252;
	phases "ABCN";
	from n152;
	to l52;
	length 400;
	configuration lc1001;
	groupid Distribution_Line;
}

object overhead_line {
	name linobj105106;
	phases "BN";
	from n105;
	to l106;
	length 225;
	configuration lc10010;
	groupid Distribution_Line;
}

object overhead_line {
	name linobj4042;
	phases "ABCN";
	from n40;
	to l42;
	length 250;
	configuration lc1001;
	groupid Distribution_Line;
}

object overhead_line {
	name linobj105108;
	phases "ABCN";
	from n105;
	to n108;
	length 325;
	configuration lc1003;
	groupid Distribution_Line;
}

object overhead_line {
	name linobj4041;
	phases "CN";
	from n40;
	to l41;
	length 325;
	configuration lc10011;
	groupid Distribution_Line;
}

object overhead_line {
	name linobj9798;
	phases "ABCN";
	from n97;
	to l98;
	length 275;
	configuration lc1003;
	groupid Distribution_Line;
}

object overhead_line {
	name linobj9899;
	phases "ABCN";
	from l98;
	to l99;
	length 550;
	configuration lc1003;
	groupid Distribution_Line;
}

object overhead_line {
	name linobj5455;
	phases "ABCN";
	from n54;
	to l55;
	length 275;
	configuration lc1001;
	groupid Distribution_Line;
}

object overhead_line {
	name linobj1334;
	phases "CN";
	from n13;
	to l34;
	length 150;
	configuration lc10011;
	groupid Distribution_Line;
}

object overhead_line {
	name linobj2627;
	phases "ACN";
	from n26;
	to n27;
	length 275;
	configuration lc1007;
	groupid Distribution_Line;
}

object line_spacing {
	name ls5006;
	distance_AN 5.656854;
	distance_CN 4.272002;
	distance_BC 4.5;
	distance_AB 7.0;
	distance_AC 2.5;
	distance_BN 5.0;
}

object line_spacing {
	name ls5007;
	distance_AN 5.656854;
	distance_CN 5.0;
	distance_BC 0.0;
	distance_AB 0.0;
	distance_AC 7.0;
	distance_BN 0.0;
}

object line_spacing {
	name ls5004;
	distance_AN 5.0;
	distance_CN 5.656854;
	distance_BC 2.5;
	distance_AB 4.5;
	distance_AC 7.0;
	distance_BN 4.272002;
}

object line_spacing {
	name ls5005;
	distance_BC 7.0;
	distance_CN 5.0;
	distance_AN 4.272002;
	distance_AB 2.5;
	distance_BN 5.656854;
	distance_AC 4.5;
}

object line_spacing {
	name ls5002;
	distance_AN 5.0;
	distance_CN 5.656854;
	distance_BC 7.0;
	distance_AB 4.5;
	distance_AC 2.5;
	distance_BN 4.272002;
}

object line_spacing {
	name ls5003;
	distance_AN 5.0;
	distance_CN 4.272002;
	distance_BC 2.5;
	distance_AB 7.0;
	distance_AC 4.5;
	distance_BN 5.656854;
}

object line_spacing {
	name ls5001;
	distance_AN 5.656854;
	distance_CN 5.0;
	distance_BC 4.5;
	distance_AB 2.5;
	distance_AC 7.0;
	distance_BN 4.272002;
}

object line_spacing {
	name ls5008;
	distance_AN 5.656854;
	distance_CN 0.0;
	distance_BC 0.0;
	distance_AB 7.0;
	distance_AC 0.0;
	distance_BN 5.0;
}

object line_spacing {
	name ls5009;
	distance_AN 5.0;
	distance_CN 0.0;
	distance_BC 0.0;
	distance_AB 0.0;
	distance_AC 0.0;
	distance_BN 0.0;
}

object line_spacing {
	name ls50010;
	distance_AN 0.0;
	distance_CN 0.0;
	distance_BC 0.0;
	distance_AB 0.0;
	distance_AC 0.0;
	distance_BN 5.0;
}

object line_spacing {
	name ls50011;
	distance_AN 0.0;
	distance_CN 5.0;
	distance_BC 0.0;
	distance_AB 0.0;
	distance_AC 0.0;
	distance_BN 0.0;
}

object line_spacing {
	name ls50012;
	distance_AN 0.0;
	distance_CN 0.0;
	distance_BC 0.5;
	distance_AB 0.5;
	distance_AC 1.0;
	distance_BN 0.0;
}

object house {
	name house3_l84_tm;
	glass_type 2;
	auxiliary_system_type ELECTRIC;
	thermostat_on_cycle_time 65;
	cooling_COP 3.77;
	hvac_breaker_rating 1000;
	cooling_system_type ELECTRIC;
	total_thermal_mass_per_floor_area 2.967;
	cooling_setpoint cooling7*0.95+78.27;
	air_temperature 71.65;
	heating_COP 3.8;
	heating_setpoint heating3*0.79+71.85;
	motor_efficiency AVERAGE;
	heating_system_type HEAT_PUMP;
	glazing_layers 3;
	glazing_treatment 2;
	Rdoors 12.54;
	latent_load_fraction 0.0001;
	groupid Residential;
	schedule_skew 757;
	window_frame 4;
	parent tpm3_l84_tm;
	floor_area 2550;
	Rwall 33.04;
	auxiliary_strategy DEADBAND;
	cooling_cop_curve LINEAR;
	number_of_stories 1;
	mass_temperature 71.65;
	cooling_cap_curve FLAT;
	Rfloor 26.04;
	airchange_per_hour 0.29;
	heating_cop_curve LINEAR;
	Rroof 52.83;
	window_wall_ratio 0.10;
	thermostat_off_cycle_time 60;
	heating_cap_curve FLAT;
	ceiling_height 8;
	breaker_amps 1000;
	over_sizing_factor 0.0;
	motor_model BASIC;
}

object house {
	name house14_l62_tm;
	glass_type 2;
	thermostat_on_cycle_time 37;
	cooling_COP 3.16;
	hvac_breaker_rating 1000;
	cooling_system_type ELECTRIC;
	total_thermal_mass_per_floor_area 3.308;
	cooling_setpoint cooling4*0.97+85.34;
	air_temperature 70.60;
	heating_setpoint heating2*0.81+73.34;
	motor_efficiency GOOD;
	heating_system_type GAS;
	glazing_layers 3;
	glazing_treatment 2;
	Rdoors 10.12;
	latent_load_fraction 0.0001;
	groupid Residential;
	schedule_skew 173;
	window_frame 4;
	parent tpm14_l62_tm;
	floor_area 2176;
	Rwall 28.36;
	cooling_cop_curve LINEAR;
	number_of_stories 2;
	mass_temperature 70.60;
	cooling_cap_curve FLAT;
	Rfloor 25.65;
	airchange_per_hour 0.23;
	heating_cop_curve LINEAR;
	Rroof 50.09;
	window_wall_ratio 0.10;
	thermostat_off_cycle_time 81;
	heating_cap_curve FLAT;
	ceiling_height 9;
	breaker_amps 1000;
	over_sizing_factor 0.0;
	motor_model BASIC;
}

object house {
	name house10_l88_tm;
	glass_type 2;
	thermostat_on_cycle_time 76;
	cooling_COP 3.79;
	hvac_breaker_rating 1000;
	cooling_system_type ELECTRIC;
	total_thermal_mass_per_floor_area 3.857;
	cooling_setpoint cooling7*1.56+76.26;
	air_temperature 68.42;
	heating_setpoint heating6*1.30+69.00;
	motor_efficiency GOOD;
	heating_system_type GAS;
	glazing_layers 3;
	glazing_treatment 2;
	Rdoors 9.70;
	latent_load_fraction 0.0001;
	groupid Residential;
	schedule_skew -2520;
	window_frame 4;
	parent tpm10_l88_tm;
	floor_area 2212;
	Rwall 29.23;
	cooling_cop_curve LINEAR;
	number_of_stories 1;
	mass_temperature 68.42;
	cooling_cap_curve FLAT;
	Rfloor 24.67;
	airchange_per_hour 0.27;
	heating_cop_curve LINEAR;
	Rroof 43.46;
	window_wall_ratio 0.10;
	thermostat_off_cycle_time 32;
	heating_cap_curve FLAT;
	ceiling_height 8;
	breaker_amps 1000;
	over_sizing_factor 0.2;
	motor_model BASIC;
}

object house {
	name house14_l103_tm;
	glass_type 2;
	thermostat_on_cycle_time 61;
	cooling_COP 3.02;
	hvac_breaker_rating 1000;
	cooling_system_type ELECTRIC;
	total_thermal_mass_per_floor_area 3.418;
	cooling_setpoint cooling2*0.92+79.14;
	air_temperature 71.72;
	heating_setpoint heating5*0.76+64.61;
	motor_efficiency GOOD;
	heating_system_type GAS;
	glazing_layers 2;
	glazing_treatment 1;
	Rdoors 5.49;
	latent_load_fraction 0.0001;
	groupid Residential;
	schedule_skew -1435;
	window_frame 2;
	parent tpm14_l103_tm;
	floor_area 1390;
	Rwall 20.98;
	cooling_cop_curve LINEAR;
	number_of_stories 1;
	mass_temperature 71.72;
	cooling_cap_curve FLAT;
	Rfloor 26.31;
	airchange_per_hour 0.22;
	heating_cop_curve LINEAR;
	Rroof 30.56;
	window_wall_ratio 0.10;
	thermostat_off_cycle_time 85;
	heating_cap_curve FLAT;
	ceiling_height 8;
	breaker_amps 1000;
	over_sizing_factor 0.0;
	motor_model BASIC;
}

object house {
	name house5_l95_tm;
	glass_type 1;
	thermostat_on_cycle_time 57;
	cooling_COP 3.43;
	hvac_breaker_rating 1000;
	cooling_system_type ELECTRIC;
	total_thermal_mass_per_floor_area 3.050;
	cooling_setpoint cooling8*0.92+79.60;
	air_temperature 70.74;
	heating_setpoint heating1*0.77+66.37;
	motor_efficiency GOOD;
	heating_system_type GAS;
	glazing_layers 2;
	glazing_treatment 1;
	Rdoors 3.36;
	latent_load_fraction 0.0001;
	groupid Residential;
	schedule_skew 3278;
	window_frame 2;
	parent tpm5_l95_tm;
	floor_area 1742;
	Rwall 21.37;
	cooling_cop_curve LINEAR;
	number_of_stories 2;
	mass_temperature 70.74;
	cooling_cap_curve FLAT;
	Rfloor 21.15;
	airchange_per_hour 0.44;
	heating_cop_curve LINEAR;
	Rroof 29.67;
	window_wall_ratio 0.10;
	thermostat_off_cycle_time 49;
	heating_cap_curve FLAT;
	ceiling_height 9;
	breaker_amps 1000;
	over_sizing_factor 0.0;
	motor_model BASIC;
}

object house {
	name house9_l50_tm;
	glass_type 2;
	thermostat_on_cycle_time 81;
	cooling_COP 3.41;
	hvac_breaker_rating 1000;
	cooling_system_type ELECTRIC;
	total_thermal_mass_per_floor_area 3.343;
	cooling_setpoint cooling2*1.76+78.41;
	air_temperature 68.75;
	heating_setpoint heating1*1.47+71.33;
	motor_efficiency GOOD;
	heating_system_type GAS;
	glazing_layers 2;
	glazing_treatment 1;
	Rdoors 4.78;
	latent_load_fraction 0.0001;
	groupid Residential;
	schedule_skew -556;
	window_frame 2;
	parent tpm9_l50_tm;
	floor_area 1981;
	Rwall 18.64;
	cooling_cop_curve LINEAR;
	number_of_stories 1;
	mass_temperature 68.75;
	cooling_cap_curve FLAT;
	Rfloor 19.70;
	airchange_per_hour 0.29;
	heating_cop_curve LINEAR;
	Rroof 42.85;
	window_wall_ratio 0.10;
	thermostat_off_cycle_time 75;
	heating_cap_curve FLAT;
	ceiling_height 9;
	breaker_amps 1000;
	over_sizing_factor 0.1;
	motor_model BASIC;
}

object house {
	name house11_l11_tm;
	glass_type 1;
	thermostat_on_cycle_time 53;
	cooling_COP 2.38;
	hvac_breaker_rating 1000;
	cooling_system_type ELECTRIC;
	total_thermal_mass_per_floor_area 2.893;
	cooling_setpoint cooling8*0.01+79.31;
	air_temperature 71.79;
	heating_setpoint heating5*0.01+71.21;
	motor_efficiency GOOD;
	heating_system_type GAS;
	glazing_layers 1;
	glazing_treatment 1;
	Rdoors 2.61;
	latent_load_fraction 0.0001;
	groupid Residential;
	schedule_skew 175;
	window_frame 1;
	parent tpm11_l11_tm;
	floor_area 829;
	Rwall 10.76;
	cooling_cop_curve LINEAR;
	number_of_stories 1;
	mass_temperature 71.79;
	cooling_cap_curve FLAT;
	Rfloor 10.49;
	airchange_per_hour 0.88;
	heating_cop_curve LINEAR;
	Rroof 11.99;
	window_wall_ratio 0.10;
	thermostat_off_cycle_time 49;
	heating_cap_curve FLAT;
	ceiling_height 8;
	breaker_amps 1000;
	over_sizing_factor 0.1;
	motor_model BASIC;
}

object house {
	name house13_l28_tm;
	glass_type 2;
	thermostat_on_cycle_time 66;
	cooling_COP 3.83;
	hvac_breaker_rating 1000;
	cooling_system_type ELECTRIC;
	total_thermal_mass_per_floor_area 3.181;
	cooling_setpoint cooling1*0.16+66.17;
	air_temperature 68.85;
	heating_setpoint heating1*0.14+59.98;
	motor_efficiency GOOD;
	heating_system_type GAS;
	glazing_layers 3;
	glazing_treatment 2;
	Rdoors 11.68;
	latent_load_fraction 0.0001;
	groupid Residential;
	schedule_skew -2128;
	window_frame 4;
	parent tpm13_l28_tm;
	floor_area 2374;
	Rwall 29.50;
	cooling_cop_curve LINEAR;
	number_of_stories 1;
	mass_temperature 68.85;
	cooling_cap_curve FLAT;
	Rfloor 34.38;
	airchange_per_hour 0.28;
	heating_cop_curve LINEAR;
	Rroof 40.57;
	window_wall_ratio 0.10;
	thermostat_off_cycle_time 31;
	heating_cap_curve FLAT;
	ceiling_height 8;
	breaker_amps 1000;
	over_sizing_factor 0.1;
	motor_model BASIC;
}

object house {
	name house0_l113_tm;
	glass_type 2;
	thermostat_on_cycle_time 84;
	cooling_COP 3.13;
	hvac_breaker_rating 1000;
	cooling_system_type ELECTRIC;
	total_thermal_mass_per_floor_area 2.617;
	cooling_setpoint cooling5*0.78+75.87;
	air_temperature 68.53;
	heating_setpoint heating3*0.65+58.44;
	motor_efficiency GOOD;
	heating_system_type GAS;
	glazing_layers 3;
	glazing_treatment 2;
	Rdoors 12.68;
	latent_load_fraction 0.0001;
	groupid Residential;
	schedule_skew -2018;
	window_frame 4;
	parent tpm0_l113_tm;
	floor_area 1984;
	Rwall 29.81;
	cooling_cop_curve LINEAR;
	number_of_stories 1;
	mass_temperature 68.53;
	cooling_cap_curve FLAT;
	Rfloor 24.46;
	airchange_per_hour 0.29;
	heating_cop_curve LINEAR;
	Rroof 50.58;
	window_wall_ratio 0.10;
	thermostat_off_cycle_time 42;
	heating_cap_curve FLAT;
	ceiling_height 9;
	breaker_amps 1000;
	over_sizing_factor 0.0;
	motor_model BASIC;
}

object house {
	name house8_l103_tm;
	glass_type 2;
	thermostat_on_cycle_time 85;
	cooling_COP 3.47;
	hvac_breaker_rating 1000;
	cooling_system_type ELECTRIC;
	total_thermal_mass_per_floor_area 3.945;
	cooling_setpoint cooling6*1.59+75.54;
	air_temperature 68.86;
	heating_setpoint heating5*1.33+63.34;
	motor_efficiency GOOD;
	heating_system_type GAS;
	glazing_layers 2;
	glazing_treatment 1;
	Rdoors 4.71;
	latent_load_fraction 0.0001;
	groupid Residential;
	schedule_skew 204;
	window_frame 2;
	parent tpm8_l103_tm;
	floor_area 1803;
	Rwall 25.79;
	cooling_cop_curve LINEAR;
	number_of_stories 2;
	mass_temperature 68.86;
	cooling_cap_curve FLAT;
	Rfloor 18.00;
	airchange_per_hour 0.24;
	heating_cop_curve LINEAR;
	Rroof 30.47;
	window_wall_ratio 0.10;
	thermostat_off_cycle_time 88;
	heating_cap_curve FLAT;
	ceiling_height 8;
	breaker_amps 1000;
	over_sizing_factor 0.2;
	motor_model BASIC;
}

object house {
	name house7_l88_tm;
	glass_type 1;
	thermostat_on_cycle_time 69;
	cooling_COP 3.59;
	hvac_breaker_rating 1000;
	cooling_system_type ELECTRIC;
	total_thermal_mass_per_floor_area 2.553;
	cooling_setpoint cooling2*0.95+72.89;
	air_temperature 70.21;
	heating_setpoint heating6*0.79+66.63;
	motor_efficiency GOOD;
	heating_system_type GAS;
	glazing_layers 2;
	glazing_treatment 1;
	Rdoors 3.14;
	latent_load_fraction 0.0001;
	groupid Residential;
	schedule_skew -950;
	window_frame 2;
	parent tpm7_l88_tm;
	floor_area 1399;
	Rwall 18.95;
	cooling_cop_curve LINEAR;
	number_of_stories 1;
	mass_temperature 70.21;
	cooling_cap_curve FLAT;
	Rfloor 18.79;
	airchange_per_hour 0.50;
	heating_cop_curve LINEAR;
	Rroof 36.53;
	window_wall_ratio 0.10;
	thermostat_off_cycle_time 63;
	heating_cap_curve FLAT;
	ceiling_height 8;
	breaker_amps 1000;
	over_sizing_factor 0.1;
	motor_model BASIC;
}

object house {
	name house11_l50_tm;
	glass_type 2;
	thermostat_on_cycle_time 65;
	cooling_COP 3.09;
	hvac_breaker_rating 1000;
	cooling_system_type ELECTRIC;
	total_thermal_mass_per_floor_area 2.816;
	cooling_setpoint cooling8*0.43+69.87;
	air_temperature 69.25;
	heating_setpoint heating6*0.39+58.96;
	motor_efficiency GOOD;
	heating_system_type GAS;
	glazing_layers 2;
	glazing_treatment 1;
	Rdoors 2.52;
	latent_load_fraction 0.0001;
	groupid Residential;
	schedule_skew -808;
	window_frame 2;
	parent tpm11_l50_tm;
	floor_area 975;
	Rwall 11.43;
	cooling_cop_curve LINEAR;
	number_of_stories 1;
	mass_temperature 69.25;
	cooling_cap_curve FLAT;
	Rfloor 14.90;
	airchange_per_hour 0.83;
	heating_cop_curve LINEAR;
	Rroof 25.34;
	window_wall_ratio 0.10;
	thermostat_off_cycle_time 74;
	heating_cap_curve FLAT;
	ceiling_height 8;
	breaker_amps 1000;
	over_sizing_factor 0.1;
	motor_model BASIC;
}

object house {
	name house9_l20_tm;
	glass_type 1;
	thermostat_on_cycle_time 34;
	cooling_COP 3.35;
	hvac_breaker_rating 1000;
	cooling_system_type ELECTRIC;
	total_thermal_mass_per_floor_area 3.097;
	cooling_setpoint cooling5*0.25+79.84;
	air_temperature 71.40;
	heating_setpoint heating1*0.21+71.32;
	motor_efficiency GOOD;
	heating_system_type GAS;
	glazing_layers 2;
	glazing_treatment 1;
	Rdoors 2.72;
	latent_load_fraction 0.0001;
	groupid Residential;
	schedule_skew 590;
	window_frame 2;
	parent tpm9_l20_tm;
	floor_area 1307;
	Rwall 20.33;
	cooling_cop_curve LINEAR;
	number_of_stories 1;
	mass_temperature 71.40;
	cooling_cap_curve FLAT;
	Rfloor 22.34;
	airchange_per_hour 0.49;
	heating_cop_curve LINEAR;
	Rroof 33.38;
	window_wall_ratio 0.10;
	thermostat_off_cycle_time 38;
	heating_cap_curve FLAT;
	ceiling_height 8;
	breaker_amps 1000;
	over_sizing_factor 0.1;
	motor_model BASIC;
}

object house {
	name house4_l41_tm;
	glass_type 2;
	thermostat_on_cycle_time 86;
	cooling_COP 3.16;
	hvac_breaker_rating 1000;
	cooling_system_type ELECTRIC;
	total_thermal_mass_per_floor_area 3.338;
	cooling_setpoint cooling7*1.06+73.49;
	air_temperature 68.29;
	heating_setpoint heating4*0.88+67.87;
	motor_efficiency GOOD;
	heating_system_type GAS;
	glazing_layers 2;
	glazing_treatment 1;
	Rdoors 5.22;
	latent_load_fraction 0.0001;
	groupid Residential;
	schedule_skew -1972;
	window_frame 2;
	parent tpm4_l41_tm;
	floor_area 2018;
	Rwall 21.74;
	cooling_cop_curve LINEAR;
	number_of_stories 1;
	mass_temperature 68.29;
	cooling_cap_curve FLAT;
	Rfloor 22.59;
	airchange_per_hour 0.26;
	heating_cop_curve LINEAR;
	Rroof 34.91;
	window_wall_ratio 0.10;
	thermostat_off_cycle_time 33;
	heating_cap_curve FLAT;
	ceiling_height 9;
	breaker_amps 1000;
	over_sizing_factor 0.1;
	motor_model BASIC;
}

object house {
	name house11_l73_tm;
	glass_type 1;
	thermostat_on_cycle_time 70;
	cooling_COP 3.14;
	hvac_breaker_rating 1000;
	cooling_system_type ELECTRIC;
	total_thermal_mass_per_floor_area 2.556;
	cooling_setpoint cooling6*0.22+71.00;
	air_temperature 69.28;
	heating_setpoint heating5*0.18+63.53;
	motor_efficiency GOOD;
	heating_system_type GAS;
	glazing_layers 2;
	glazing_treatment 1;
	Rdoors 3.13;
	latent_load_fraction 0.0001;
	groupid Residential;
	schedule_skew 3059;
	window_frame 2;
	parent tpm11_l73_tm;
	floor_area 1599;
	Rwall 22.28;
	cooling_cop_curve LINEAR;
	number_of_stories 2;
	mass_temperature 69.28;
	cooling_cap_curve FLAT;
	Rfloor 19.51;
	airchange_per_hour 0.46;
	heating_cop_curve LINEAR;
	Rroof 33.03;
	window_wall_ratio 0.10;
	thermostat_off_cycle_time 71;
	heating_cap_curve FLAT;
	ceiling_height 8;
	breaker_amps 1000;
	over_sizing_factor 0.1;
	motor_model BASIC;
}

object house {
	name house13_l75_tm;
	glass_type 1;
	thermostat_on_cycle_time 48;
	cooling_COP 2.81;
	hvac_breaker_rating 1000;
	cooling_system_type ELECTRIC;
	total_thermal_mass_per_floor_area 3.742;
	cooling_setpoint cooling2*0.53+71.00;
	air_temperature 70.28;
	heating_setpoint heating5*0.44+64.35;
	motor_efficiency GOOD;
	heating_system_type RESISTANCE;
	glazing_layers 2;
	glazing_treatment 1;
	Rdoors 2.87;
	latent_load_fraction 0.0001;
	groupid Residential;
	schedule_skew 4109;
	window_frame 1;
	parent tpm13_l75_tm;
	floor_area 1282;
	Rwall 12.57;
	cooling_cop_curve LINEAR;
	number_of_stories 1;
	mass_temperature 70.28;
	cooling_cap_curve FLAT;
	Rfloor 14.60;
	airchange_per_hour 0.45;
	heating_cop_curve LINEAR;
	Rroof 19.72;
	window_wall_ratio 0.10;
	thermostat_off_cycle_time 41;
	heating_cap_curve FLAT;
	ceiling_height 9;
	breaker_amps 1000;
	over_sizing_factor 0.1;
	motor_model BASIC;
}

object house {
	name house2_l64_tm;
	glass_type 1;
	thermostat_on_cycle_time 45;
	cooling_COP 3.23;
	hvac_breaker_rating 1000;
	cooling_system_type ELECTRIC;
	total_thermal_mass_per_floor_area 3.266;
	cooling_setpoint cooling4*1.06+76.68;
	air_temperature 68.24;
	heating_setpoint heating5*0.88+69.00;
	motor_efficiency GOOD;
	heating_system_type GAS;
	glazing_layers 2;
	glazing_treatment 1;
	Rdoors 3.17;
	latent_load_fraction 0.0001;
	groupid Residential;
	schedule_skew -280;
	window_frame 2;
	parent tpm2_l64_tm;
	floor_area 1524;
	Rwall 19.48;
	cooling_cop_curve LINEAR;
	number_of_stories 1;
	mass_temperature 68.24;
	cooling_cap_curve FLAT;
	Rfloor 17.48;
	airchange_per_hour 0.50;
	heating_cop_curve LINEAR;
	Rroof 37.99;
	window_wall_ratio 0.10;
	thermostat_off_cycle_time 87;
	heating_cap_curve FLAT;
	ceiling_height 9;
	breaker_amps 1000;
	over_sizing_factor 0.1;
	motor_model BASIC;
}

object house {
	name house6_l33_tm;
	glass_type 1;
	auxiliary_system_type ELECTRIC;
	thermostat_on_cycle_time 72;
	cooling_COP 2.74;
	hvac_breaker_rating 1000;
	cooling_system_type ELECTRIC;
	total_thermal_mass_per_floor_area 3.011;
	cooling_setpoint cooling2*1.33+72.68;
	air_temperature 69.86;
	heating_COP 2.7;
	heating_setpoint heating4*1.10+67.88;
	motor_efficiency AVERAGE;
	heating_system_type HEAT_PUMP;
	glazing_layers 1;
	glazing_treatment 1;
	Rdoors 3.08;
	latent_load_fraction 0.0001;
	groupid Residential;
	schedule_skew -537;
	window_frame 1;
	parent tpm6_l33_tm;
	floor_area 1210;
	Rwall 10.28;
	auxiliary_strategy DEADBAND;
	cooling_cop_curve LINEAR;
	number_of_stories 2;
	mass_temperature 69.86;
	cooling_cap_curve FLAT;
	Rfloor 10.81;
	airchange_per_hour 0.62;
	heating_cop_curve LINEAR;
	Rroof 13.99;
	window_wall_ratio 0.10;
	thermostat_off_cycle_time 46;
	heating_cap_curve FLAT;
	ceiling_height 9;
	breaker_amps 1000;
	over_sizing_factor 0.0;
	motor_model BASIC;
}

object house {
	name house2_l71_tm;
	glass_type 1;
	thermostat_on_cycle_time 61;
	cooling_COP 3.08;
	hvac_breaker_rating 1000;
	cooling_system_type ELECTRIC;
	total_thermal_mass_per_floor_area 3.990;
	cooling_setpoint cooling7*0.74+72.63;
	air_temperature 71.31;
	heating_setpoint heating4*0.62+66.41;
	motor_efficiency GOOD;
	heating_system_type GAS;
	glazing_layers 2;
	glazing_treatment 1;
	Rdoors 3.57;
	latent_load_fraction 0.0001;
	groupid Residential;
	schedule_skew 627;
	window_frame 2;
	parent tpm2_l71_tm;
	floor_area 1242;
	Rwall 15.78;
	cooling_cop_curve LINEAR;
	number_of_stories 1;
	mass_temperature 71.31;
	cooling_cap_curve FLAT;
	Rfloor 19.33;
	airchange_per_hour 0.46;
	heating_cop_curve LINEAR;
	Rroof 24.78;
	window_wall_ratio 0.10;
	thermostat_off_cycle_time 56;
	heating_cap_curve FLAT;
	ceiling_height 9;
	breaker_amps 1000;
	over_sizing_factor 0.0;
	motor_model BASIC;
}

object house {
	name house25_l64_tm;
	glass_type 1;
	thermostat_on_cycle_time 80;
	cooling_COP 3.21;
	hvac_breaker_rating 1000;
	cooling_system_type ELECTRIC;
	total_thermal_mass_per_floor_area 3.801;
	cooling_setpoint cooling2*1.59+66.15;
	air_temperature 68.58;
	heating_setpoint heating2*1.33+59.56;
	motor_efficiency GOOD;
	heating_system_type GAS;
	glazing_layers 2;
	glazing_treatment 1;
	Rdoors 2.86;
	latent_load_fraction 0.0001;
	groupid Residential;
	schedule_skew 518;
	window_frame 2;
	parent tpm25_l64_tm;
	floor_area 1517;
	Rwall 20.51;
	cooling_cop_curve LINEAR;
	number_of_stories 1;
	mass_temperature 68.58;
	cooling_cap_curve FLAT;
	Rfloor 19.61;
	airchange_per_hour 0.55;
	heating_cop_curve LINEAR;
	Rroof 37.72;
	window_wall_ratio 0.10;
	thermostat_off_cycle_time 63;
	heating_cap_curve FLAT;
	ceiling_height 9;
	breaker_amps 1000;
	over_sizing_factor 0.1;
	motor_model BASIC;
}

object house {
	name house2_l92_tm;
	glass_type 1;
	thermostat_on_cycle_time 35;
	cooling_COP 2.66;
	hvac_breaker_rating 1000;
	cooling_system_type ELECTRIC;
	total_thermal_mass_per_floor_area 3.876;
	cooling_setpoint cooling4*0.81+71.00;
	air_temperature 70.41;
	heating_setpoint heating5*0.33+61.77;
	motor_efficiency GOOD;
	heating_system_type GAS;
	glazing_layers 2;
	glazing_treatment 2;
	Rdoors 2.64;
	latent_load_fraction 0.0001;
	groupid Residential;
	schedule_skew -540;
	window_frame 2;
	parent tpm2_l92_tm;
	floor_area 649;
	Rwall 11.86;
	cooling_cop_curve LINEAR;
	number_of_stories 1;
	mass_temperature 70.41;
	cooling_cap_curve FLAT;
	Rfloor 10.50;
	airchange_per_hour 0.23;
	heating_cop_curve LINEAR;
	Rroof 23.00;
	window_wall_ratio 0.10;
	thermostat_off_cycle_time 63;
	heating_cap_curve FLAT;
	ceiling_height 8;
	breaker_amps 1000;
	over_sizing_factor 0.1;
	motor_model BASIC;
}

object house {
	name house14_l75_tm;
	glass_type 1;
	thermostat_on_cycle_time 45;
	cooling_COP 3.30;
	hvac_breaker_rating 1000;
	cooling_system_type ELECTRIC;
	total_thermal_mass_per_floor_area 3.645;
	cooling_setpoint cooling2*1.74+85.18;
	air_temperature 69.02;
	heating_setpoint heating4*1.45+75.26;
	motor_efficiency GOOD;
	heating_system_type GAS;
	glazing_layers 2;
	glazing_treatment 1;
	Rdoors 3.16;
	latent_load_fraction 0.0001;
	groupid Residential;
	schedule_skew 89;
	window_frame 2;
	parent tpm14_l75_tm;
	floor_area 1107;
	Rwall 20.11;
	cooling_cop_curve LINEAR;
	number_of_stories 2;
	mass_temperature 69.02;
	cooling_cap_curve FLAT;
	Rfloor 19.02;
	airchange_per_hour 0.42;
	heating_cop_curve LINEAR;
	Rroof 30.31;
	window_wall_ratio 0.10;
	thermostat_off_cycle_time 67;
	heating_cap_curve FLAT;
	ceiling_height 8;
	breaker_amps 1000;
	over_sizing_factor 0.0;
	motor_model BASIC;
}

object house {
	name house0_l80_tm;
	glass_type 2;
	thermostat_on_cycle_time 30;
	cooling_COP 3.17;
	hvac_breaker_rating 1000;
	cooling_system_type ELECTRIC;
	total_thermal_mass_per_floor_area 3.690;
	cooling_setpoint cooling8*0.89+73.82;
	air_temperature 68.39;
	heating_setpoint heating2*0.74+67.33;
	motor_efficiency GOOD;
	heating_system_type GAS;
	glazing_layers 2;
	glazing_treatment 1;
	Rdoors 5.08;
	latent_load_fraction 0.0001;
	groupid Residential;
	schedule_skew -550;
	window_frame 2;
	parent tpm0_l80_tm;
	floor_area 1503;
	Rwall 22.88;
	cooling_cop_curve LINEAR;
	number_of_stories 1;
	mass_temperature 68.39;
	cooling_cap_curve FLAT;
	Rfloor 23.27;
	airchange_per_hour 0.27;
	heating_cop_curve LINEAR;
	Rroof 42.65;
	window_wall_ratio 0.10;
	thermostat_off_cycle_time 55;
	heating_cap_curve FLAT;
	ceiling_height 8;
	breaker_amps 1000;
	over_sizing_factor 0.0;
	motor_model BASIC;
}

object house {
	name house10_l43_tm;
	glass_type 1;
	thermostat_on_cycle_time 65;
	cooling_COP 2.55;
	hvac_breaker_rating 1000;
	cooling_system_type ELECTRIC;
	total_thermal_mass_per_floor_area 3.602;
	cooling_setpoint cooling6*0.53+75.80;
	air_temperature 69.51;
	heating_setpoint heating4*0.22+69.00;
	motor_efficiency GOOD;
	heating_system_type GAS;
	glazing_layers 2;
	glazing_treatment 2;
	Rdoors 3.15;
	latent_load_fraction 0.0001;
	groupid Residential;
	schedule_skew -5983;
	window_frame 2;
	parent tpm10_l43_tm;
	floor_area 833;
	Rwall 13.72;
	cooling_cop_curve LINEAR;
	number_of_stories 1;
	mass_temperature 69.51;
	cooling_cap_curve FLAT;
	Rfloor 13.88;
	airchange_per_hour 0.22;
	heating_cop_curve LINEAR;
	Rroof 17.84;
	window_wall_ratio 0.10;
	thermostat_off_cycle_time 32;
	heating_cap_curve FLAT;
	ceiling_height 8;
	breaker_amps 1000;
	over_sizing_factor 0.0;
	motor_model BASIC;
}

object house {
	name house10_l85_tm;
	glass_type 1;
	thermostat_on_cycle_time 77;
	cooling_COP 2.96;
	hvac_breaker_rating 1000;
	cooling_system_type ELECTRIC;
	total_thermal_mass_per_floor_area 3.212;
	cooling_setpoint cooling4*0.79+75.80;
	air_temperature 71.50;
	heating_setpoint heating1*0.32+69.00;
	motor_efficiency GOOD;
	heating_system_type GAS;
	glazing_layers 2;
	glazing_treatment 2;
	Rdoors 2.51;
	latent_load_fraction 0.0001;
	groupid Residential;
	schedule_skew -5230;
	window_frame 2;
	parent tpm10_l85_tm;
	floor_area 753;
	Rwall 11.27;
	cooling_cop_curve LINEAR;
	number_of_stories 1;
	mass_temperature 71.50;
	cooling_cap_curve FLAT;
	Rfloor 13.20;
	airchange_per_hour 0.22;
	heating_cop_curve LINEAR;
	Rroof 17.04;
	window_wall_ratio 0.10;
	thermostat_off_cycle_time 62;
	heating_cap_curve FLAT;
	ceiling_height 8;
	breaker_amps 1000;
	over_sizing_factor 0.1;
	motor_model BASIC;
}

object house {
	name house7_l87_tm;
	glass_type 2;
	thermostat_on_cycle_time 78;
	cooling_COP 3.07;
	hvac_breaker_rating 1000;
	cooling_system_type ELECTRIC;
	total_thermal_mass_per_floor_area 3.297;
	cooling_setpoint cooling2*1.26+73.82;
	air_temperature 68.17;
	heating_setpoint heating4*1.05+66.83;
	motor_efficiency GOOD;
	heating_system_type GAS;
	glazing_layers 2;
	glazing_treatment 1;
	Rdoors 4.92;
	latent_load_fraction 0.0001;
	groupid Residential;
	schedule_skew 3778;
	window_frame 2;
	parent tpm7_l87_tm;
	floor_area 1806;
	Rwall 21.86;
	cooling_cop_curve LINEAR;
	number_of_stories 1;
	mass_temperature 68.17;
	cooling_cap_curve FLAT;
	Rfloor 25.45;
	airchange_per_hour 0.23;
	heating_cop_curve LINEAR;
	Rroof 37.28;
	window_wall_ratio 0.10;
	thermostat_off_cycle_time 56;
	heating_cap_curve FLAT;
	ceiling_height 9;
	breaker_amps 1000;
	over_sizing_factor 0.1;
	motor_model BASIC;
}

object house {
	name house3_l7_tm;
	glass_type 1;
	thermostat_on_cycle_time 62;
	cooling_COP 2.70;
	hvac_breaker_rating 1000;
	cooling_system_type ELECTRIC;
	total_thermal_mass_per_floor_area 3.672;
	cooling_setpoint cooling3*0.38+78.13;
	air_temperature 70.38;
	heating_setpoint heating3*0.16+70.90;
	motor_efficiency GOOD;
	heating_system_type RESISTANCE;
	glazing_layers 1;
	glazing_treatment 1;
	Rdoors 2.57;
	latent_load_fraction 0.0001;
	groupid Residential;
	schedule_skew -2520;
	window_frame 1;
	parent tpm3_l7_tm;
	floor_area 789;
	Rwall 13.51;
	cooling_cop_curve LINEAR;
	number_of_stories 1;
	mass_temperature 70.38;
	cooling_cap_curve FLAT;
	Rfloor 9.32;
	airchange_per_hour 0.81;
	heating_cop_curve LINEAR;
	Rroof 14.08;
	window_wall_ratio 0.10;
	thermostat_off_cycle_time 84;
	heating_cap_curve FLAT;
	ceiling_height 8;
	breaker_amps 1000;
	over_sizing_factor 0.2;
	motor_model BASIC;
}

object house {
	name house10_l66_tm;
	glass_type 2;
	thermostat_on_cycle_time 46;
	cooling_COP 3.17;
	hvac_breaker_rating 1000;
	cooling_system_type ELECTRIC;
	total_thermal_mass_per_floor_area 3.331;
	cooling_setpoint cooling8*1.04+78.61;
	air_temperature 69.19;
	heating_setpoint heating6*0.87+71.45;
	motor_efficiency GOOD;
	heating_system_type GAS;
	glazing_layers 2;
	glazing_treatment 1;
	Rdoors 5.59;
	latent_load_fraction 0.0001;
	groupid Residential;
	schedule_skew 584;
	window_frame 2;
	parent tpm10_l66_tm;
	floor_area 1761;
	Rwall 25.52;
	cooling_cop_curve LINEAR;
	number_of_stories 1;
	mass_temperature 69.19;
	cooling_cap_curve FLAT;
	Rfloor 23.07;
	airchange_per_hour 0.29;
	heating_cop_curve LINEAR;
	Rroof 33.83;
	window_wall_ratio 0.10;
	thermostat_off_cycle_time 80;
	heating_cap_curve FLAT;
	ceiling_height 9;
	breaker_amps 1000;
	over_sizing_factor 0.2;
	motor_model BASIC;
}

object house {
	name house13_l74_tm;
	glass_type 2;
	thermostat_on_cycle_time 64;
	cooling_COP 3.78;
	hvac_breaker_rating 1000;
	cooling_system_type ELECTRIC;
	total_thermal_mass_per_floor_area 3.430;
	cooling_setpoint cooling4*0.66+73.04;
	air_temperature 71.29;
	heating_setpoint heating5*0.55+67.88;
	motor_efficiency GOOD;
	heating_system_type GAS;
	glazing_layers 2;
	glazing_treatment 1;
	Rdoors 5.29;
	latent_load_fraction 0.0001;
	groupid Residential;
	schedule_skew 2444;
	window_frame 2;
	parent tpm13_l74_tm;
	floor_area 1544;
	Rwall 24.28;
	cooling_cop_curve LINEAR;
	number_of_stories 1;
	mass_temperature 71.29;
	cooling_cap_curve FLAT;
	Rfloor 19.04;
	airchange_per_hour 0.28;
	heating_cop_curve LINEAR;
	Rroof 31.10;
	window_wall_ratio 0.10;
	thermostat_off_cycle_time 76;
	heating_cap_curve FLAT;
	ceiling_height 9;
	breaker_amps 1000;
	over_sizing_factor 0.0;
	motor_model BASIC;
}

object house {
	name house5_l79_tm;
	glass_type 1;
	thermostat_on_cycle_time 70;
	cooling_COP 2.18;
	hvac_breaker_rating 1000;
	cooling_system_type ELECTRIC;
	total_thermal_mass_per_floor_area 3.753;
	cooling_setpoint cooling3*0.80+67.60;
	air_temperature 68.51;
	heating_setpoint heating6*0.33+60.39;
	motor_efficiency GOOD;
	heating_system_type GAS;
	glazing_layers 2;
	glazing_treatment 2;
	Rdoors 2.44;
	latent_load_fraction 0.0001;
	groupid Residential;
	schedule_skew -518;
	window_frame 2;
	parent tpm5_l79_tm;
	floor_area 840;
	Rwall 10.70;
	cooling_cop_curve LINEAR;
	number_of_stories 1;
	mass_temperature 68.51;
	cooling_cap_curve FLAT;
	Rfloor 13.21;
	airchange_per_hour 0.26;
	heating_cop_curve LINEAR;
	Rroof 23.03;
	window_wall_ratio 0.10;
	thermostat_off_cycle_time 65;
	heating_cap_curve FLAT;
	ceiling_height 8;
	breaker_amps 1000;
...